data_created_by_vaspkit_code
_audit_creation_date          Mon Sep 24 01:18:31 2018
_pd_phase_name                     'CIF files'
_cell_length_a                     4.40571394
_cell_length_b                     4.40571394
_cell_length_c                     9.51824426
_cell_angle_alpha                     90.0000
_cell_angle_beta                      90.0000
_cell_angle_gamma                    120.0000
_symmetry_space_group_name_H-M           'P 1'
_symmetry_Int_Tables_number            1
loop_
_symmetry_equiv_pos_as_xyz
    'x, y, z'
loop_
   _atom_site_label
   _atom_site_occupancy
   _atom_site_fract_x
   _atom_site_fract_y
   _atom_site_fract_z
   _atom_site_thermal_displace_type
   _atom_site_U_iso_or_equiv
   _atom_site_type_symbol
   Fe001  1.0    0.333300    0.666700    0.500000  Uiso   1.00  Fe
   Fe002  1.0    0.666700    0.333300    0.500000  Uiso   1.00  Fe
    P001  1.0    0.000000    0.000000    0.000000  Uiso   1.00   P
    P002  1.0    0.000000    0.000000    0.500000  Uiso   1.00   P
